---- qbsp / ericw-tools v0.18.1 ----
Input file: trap.map
Output file: trap.bsp

---- LoadMapFile ----
*** WARNING 06: No info_player_deathmatch entities in level
         1026 faces
          171 brushes
          219 entities
            9 unique texnames
          338 texinfo

Opened WAD: D:/QuakeDev/wads/prototype_1_2.wad
Opened WAD: D:/QuakeDev/wads/id1.wad
Opened WAD: D:/QuakeDev/wads/START.WAD
Processing hull 0...
---- Brush_LoadEntity ----
          146 brushes
          140 planes
---- CSGFaces ----
          876 brushfaces
          850 csgfaces
          959 mergedfaces
---- SolidBSP ----
          959 split nodes
          305 solid leafs
          574 empty leafs
           81 water leafs
            0 detail leafs
            0 detail illusionary leafs
            0 detail fence leafs
            0 illusionary visblocker leafs
         2012 leaffaces
         1873 nodefaces
---- Portalize ----
          655 vis leafs
          655 vis clusters
         1566 vis portals
---- FillOutside ----
*** WARNING 10: Reached occupant at (-320 1088 344), no filling performed.
Leak file written to trap.pts
---- MakeFaceEdges ----
---- GrowRegions ----
Processing hull 1...
*** WARNING 19: No entities in empty space -- no filling performed (hull 1)
Processing hull 2...
*** WARNING 19: No entities in empty space -- no filling performed (hull 2)
---- WriteBSPFile ----
Wrote trap.bsp
          366 planes             7320
         2002 vertexes          24024
         1109 nodes             26616
          292 texinfo           11680
         2043 faces             40860
         2354 clipnodes         18832
          806 leafs             22568
         2182 marksurfaces       4364
         8172 surfedges         32688
         5180 edges             20720
           13 textures         113856
              lightdata             0
              visdata               0
              entdata           17794

0.376 seconds elapsed
Peak memory usage: 10488016 (10.0M)
