---- qbsp / ericw-tools v0.18.1 ----
Input file: trap.map
Output file: trap.bsp

---- LoadMapFile ----
*** WARNING 06: No info_player_deathmatch entities in level
          780 faces
          130 brushes
          195 entities
           10 unique texnames
          140 texinfo

Opened WAD: D:/QuakeDev/wads/prototype_1_2.wad
Processing hull 0...
---- Brush_LoadEntity ----
          107 brushes
           92 planes
---- CSGFaces ----
          642 brushfaces
          500 csgfaces
          582 mergedfaces
---- SolidBSP ----
          573 split nodes
          151 solid leafs
          371 empty leafs
           52 water leafs
            0 detail leafs
            0 detail illusionary leafs
            0 detail fence leafs
            0 illusionary visblocker leafs
         1225 leaffaces
         1170 nodefaces
---- Portalize ----
          423 vis leafs
          423 vis clusters
          992 vis portals
---- FillOutside ----
          317 outleafs
---- MergeAll ----
          251 mergefaces
---- SolidBSP ----
          163 split nodes
          114 solid leafs
           29 empty leafs
           21 water leafs
            0 detail leafs
            0 detail illusionary leafs
            0 detail fence leafs
            0 illusionary visblocker leafs
          340 leaffaces
          306 nodefaces
---- Portalize ----
           50 vis leafs
           50 vis clusters
           64 vis portals
---- Tjunc ----
          279 world edges
          957 edge points
          326 edges added by tjunctions
            0 faces added by tjunctions
---- MakeFaceEdges ----
---- GrowRegions ----
Processing hull 1...
*** WARNING 19: No entities in empty space -- no filling performed (hull 1)
Processing hull 2...
*** WARNING 19: No entities in empty space -- no filling performed (hull 2)
---- WriteBSPFile ----
Wrote trap.bsp
          291 planes             5820
          568 vertexes           6816
          301 nodes              7224
          108 texinfo            4320
          456 faces              9120
         1589 clipnodes         12712
          189 leafs              5292
          490 marksurfaces        980
         2150 surfedges          8600
         1100 edges              4400
           13 textures         129776
              lightdata             0
              visdata               0
              entdata           15297

0.305 seconds elapsed
Peak memory usage: 5126312 (4.9M)
