---- qbsp / ericw-tools v0.18.1 ----
Input file: trap.map
Output file: trap.bsp

---- LoadMapFile ----
*** WARNING 06: No info_player_deathmatch entities in level
         1026 faces
          171 brushes
          211 entities
           11 unique texnames
          243 texinfo

Opened WAD: D:/QuakeDev/wads/prototype_1_2.wad
Processing hull 0...
---- Brush_LoadEntity ----
          146 brushes
          134 planes
---- CSGFaces ----
          876 brushfaces
          820 csgfaces
          915 mergedfaces
---- SolidBSP ----
          874 split nodes
          286 solid leafs
          517 empty leafs
           72 water leafs
            0 detail leafs
            0 detail illusionary leafs
            0 detail fence leafs
            0 illusionary visblocker leafs
         1863 leaffaces
         1737 nodefaces
---- Portalize ----
          589 vis leafs
          589 vis clusters
         1389 vis portals
---- FillOutside ----
          418 outleafs
---- MergeAll ----
          430 mergefaces
---- SolidBSP ----
          275 split nodes
          181 solid leafs
           60 empty leafs
           35 water leafs
            0 detail leafs
            0 detail illusionary leafs
            0 detail fence leafs
            0 illusionary visblocker leafs
          605 leaffaces
          531 nodefaces
---- Portalize ----
           95 vis leafs
           95 vis clusters
          128 vis portals
---- Tjunc ----
          497 world edges
         1671 edge points
          530 edges added by tjunctions
            0 faces added by tjunctions
---- MakeFaceEdges ----
---- GrowRegions ----
Processing hull 1...
*** WARNING 19: No entities in empty space -- no filling performed (hull 1)
Processing hull 2...
*** WARNING 19: No entities in empty space -- no filling performed (hull 2)
---- WriteBSPFile ----
Wrote trap.bsp
          337 planes             6740
          850 vertexes          10200
          425 nodes             10200
          177 texinfo            7080
          683 faces             13660
         2105 clipnodes         16840
          246 leafs              6888
          757 marksurfaces       1514
         3258 surfedges         13032
         1672 edges              6688
           14 textures         135260
              lightdata             0
              visdata               0
              entdata           17041

0.349 seconds elapsed
Peak memory usage: 7261174 (6.9M)
