---- qbsp / ericw-tools v0.18.1 ----
Input file: zombie.map
Output file: zombie.bsp

---- LoadMapFile ----
*** WARNING 06: No info_player_deathmatch entities in level
          156 faces
           26 brushes
           71 entities
            4 unique texnames
           52 texinfo

Opened WAD: D:/QuakeDev/wads/START.WAD
Processing hull 0...
---- Brush_LoadEntity ----
           26 brushes
           38 planes
---- CSGFaces ----
          156 brushfaces
          152 csgfaces
          152 mergedfaces
---- SolidBSP ----
          147 split nodes
           53 solid leafs
           95 empty leafs
            0 water leafs
            0 detail leafs
            0 detail illusionary leafs
            0 detail fence leafs
            0 illusionary visblocker leafs
          471 leaffaces
          443 nodefaces
---- Portalize ----
           95 vis leafs
           95 vis clusters
          219 vis portals
---- FillOutside ----
           78 outleafs
---- MergeAll ----
           68 mergefaces
---- SolidBSP ----
           47 split nodes
           33 solid leafs
           15 empty leafs
            0 water leafs
            0 detail leafs
            0 detail illusionary leafs
            0 detail fence leafs
            0 illusionary visblocker leafs
          179 leaffaces
          159 nodefaces
---- Portalize ----
           15 vis leafs
           15 vis clusters
           20 vis portals
---- Tjunc ----
          138 world edges
          513 edge points
           74 edges added by tjunctions
            0 faces added by tjunctions
---- MakeFaceEdges ----
---- GrowRegions ----
Processing hull 1...
Processing hull 2...
---- WriteBSPFile ----
Wrote zombie.bsp
           63 planes             1260
          194 vertexes           2328
           47 nodes              1128
           25 texinfo            1000
          159 faces              3180
           91 clipnodes           728
           16 leafs               448
          179 marksurfaces        358
          710 surfedges          2840
          356 edges              1424
            4 textures          23732
              lightdata             0
              visdata               0
              entdata            4556

0.195 seconds elapsed
Peak memory usage: 1607358 (1.5M)
